256
#gold surface
AU  1.7699699  -10.9747791  -4.8775105
AU  3.0310299  -9.0407801  -5.0068402
AU  1.28765  -9.0299406  -7.3038101
AU  2.9155803  -10.6781702  -7.4825301
AU  2.4765801  -9.2136497  0.0983
AU  3.1974299  -9.0282907  -0.92976
AU  1.29726  -8.89289  -3.0118098
AU  2.9449899  -11.1942606  -2.8547699
AU  1.2427  -11.1678305  3.0637898
AU  3.2370899  -9.0698605  3.0409899
AU  1.2368101  -8.9903402  1.04326
AU  3.14923  -11.1405497  0.8933
AU  1.2715402  -11.1232615  7.3071003
AU  3.2974801  -9.0525293  7.2013197
AU  1.25161  -9.0523996  5.12536
AU  3.24614  -11.1617813  5.1312799
AU  1.22509  -6.8668704  -5.11904
AU  3.23035  -4.7739296  -5.0486698
AU  1.2734401  -4.8005404  -7.2221699
AU  3.23017  -6.9394903  -7.1752801
AU  1.2074599  -6.8478999  -1.00377
AU  3.2812898  -4.8618102  -0.9517
AU  1.18025  -4.8097401  -3.01828
AU  3.2522802  -6.8956504  -3.0094101
AU  1.2329401  -6.9661002  3.07934
AU  3.2670898  -4.8512301  3.0592999
AU  1.2119001  -4.8546004  1.01227
AU  3.31621  -6.8021202  1.1373999
AU  1.27978  -6.9829397  7.2062998
AU  3.2667201  -4.8542705  7.1827097
AU  1.2413801  -4.8258805  5.0896397
AU  3.2624602  -6.9581904  5.10671
AU  -14.9710999  -11.1046095  -5.10572
AU  -12.9013901  -9.0238905  -5.0834999
AU  -14.9772491  -9.0040197  -7.1677899
AU  -12.9089298  -11.0917902  -7.2128301
AU  -14.9705086  -11.1620302  -1.00762
AU  -12.8828897  -9.0436497  -1.0091499
AU  -14.9761887  -9.0501099  -3.02403
AU  -12.9060488  -11.13937  -3.0506201
AU  -14.9652405  -11.1516504  3.0513799
AU  -12.8775797  -9.0245094  3.0276
AU  -14.9740191  -9.0550699  1.00635
AU  -12.8872604  -11.1501503  1.01844
AU  -14.9804592  -11.0569296  7.1379499
AU  -12.8974695  -9.0051298  7.1550102
AU  -14.9732695  -9.0283709  5.0365505
AU  -12.8819904  -11.1156607  5.0834699
AU  -14.9900198  -6.9931102  -5.04776
AU  -12.8875294  -4.8751206  -5.0778804
AU  -15.0142803  -4.8822699  -7.06533
AU  -12.9178495  -6.9548206  -7.1668701
AU  -14.9830599  -6.9685302  -1.01305
AU  -12.8842697  -4.8560104  -1.0090499
AU  -14.9902096  -4.8840103  -3.0441098
AU  -12.8855095  -6.9639297  -3.0359802
AU  -14.9886293  -6.9703102  3.0037
AU  -12.8938103  -4.8504906  3.0139802
AU  -15.009429  -4.8576303  1.0015
AU  -12.8859301  -6.9601603  1.0089301
AU  -14.9840889  -6.9848104  7.11974
AU  -12.9060688  -4.88061  7.1140404
AU  -15.0060997  -4.9006801  5.0315104
AU  -12.8923206  -6.9612699  5.0471601
AU  4.94628  -11.1473503  -5.1094198
AU  7.23105  -9.0348997  -5.09022
AU  5.2104902  -9.0132504  -7.1318502
AU  7.1830997  -11.1722298  -7.0671301
AU  5.2271099  -11.1644096  -1.0595999
AU  7.2697396  -9.0854197  -1.0624299
AU  5.1533999  -9.0757895  -3.06393
AU  7.2109199  -11.1696501  -3.1589298
AU  5.2195997  -11.1949406  3.0139501
AU  7.2866096  -9.0787096  3.0342898
AU  5.2526298  -9.0745192  1.0177499
AU  7.2804399  -11.18046  0.98835
AU  5.29286  -11.1720896  7.1914601
AU  7.3005605  -9.0487299  7.1942101
AU  5.2789898  -9.0770597  5.0942101
AU  7.3032899  -11.1745996  5.0845604
AU  5.2068701  -6.9500203  -5.09163
AU  7.2569599  -4.8475504  -5.1006498
AU  5.2146201  -4.8179703  -7.1647501
AU  7.2385201  -6.9300103  -7.1823997
AU  5.2561502  -7.03126  -1.00801
AU  7.2780199  -4.8841305  -1.0203401
AU  5.2550402  -4.8444004  -3.0236101
AU  7.2520599  -6.9766903  -3.06282
AU  5.29211  -7.0120902  3.09396
AU  7.3002  -4.8703303  3.0388598
AU  5.3325706  -4.9703603  1.02095
AU  7.2975903  -7.0282798  1.0111001
AU  5.2826896  -6.9659801  7.1848302
AU  7.29634  -4.8511806  7.2033095
AU  5.2782698  -4.8339  5.0829697
AU  7.2883196  -6.9802299  5.1055503
AU  -10.8856697  -11.1387005  -5.1184201
AU  -8.8445396  -9.0584602  -5.1380401
AU  -10.8838406  -9.0208607  -7.2142501
AU  -8.8775597  -11.1392498  -7.2347403
AU  -10.8512106  -11.151721  -1.02197
AU  -8.8106298  -9.0566492  -1.04074
AU  -10.8594694  -9.0502901  -3.06106
AU  -8.8443604  -11.1753702  -3.0880499
AU  -10.8473101  -11.1299706  3.0479999
AU  -8.8122406  -9.0415697  3.0588999
AU  -10.8340397  -9.0437803  1.01177
AU  -8.8171406  -11.1637106  1.02231
AU  -10.89849  -11.1380501  7.20719
AU  -8.8532906  -9.0422497  7.2178202
AU  -10.8556604  -9.0189409  5.0977902
AU  -8.8555098  -11.1375599  5.1228499
AU  -10.8567495  -6.9727201  -5.1136498
AU  -8.7975397  -4.9042001  -5.1469398
AU  -10.8567801  -4.8941407  -7.2023597
AU  -8.82407  -7.0079598  -7.2341905
AU  -10.8307199  -6.9719801  -1.02089
AU  -8.7816296  -4.8687901  -1.03811
AU  -10.8287907  -4.8717403  -3.0653801
AU  -8.8165398  -6.9867301  -3.08552
AU  -10.8263502  -6.9513502  3.0352402
AU  -8.7820396  -4.8615804  3.0515599
AU  -10.8153811  -4.84623  1.0060201
AU  -8.7896891  -6.9691801  1.0054499
AU  -10.8729  -6.9610701  7.1759501
AU  -8.8642101  -4.86973  7.2239494
AU  -10.8461094  -4.8528404  5.0742102
AU  -8.8212109  -6.9635501  5.1155405
AU  9.3395996  -11.1219816  -5.1195302
AU  11.3405895  -9.0013504  -5.1066599
AU  9.2557096  -9.0269804  -7.1855998
AU  11.3703403  -11.0439997  -7.2289796
AU  9.2976294  -11.1676607  -1.0860201
AU  11.3443403  -9.0399494  -1.0443
AU  9.2966194  -9.0548201  -3.08938
AU  11.3857203  -11.12253  -3.0882897
AU  9.3362694  -11.1551905  3.0346401
AU  11.3373003  -9.0375195  3.0246999
AU  9.3076296  -9.0661898  0.97878
AU  11.3537703  -11.1542606  0.96514
AU  9.3409004  -11.1367197  7.1739097
AU  11.3506498  -9.0001698  7.1767302
AU  9.3224697  -9.0487804  5.0926099
AU  11.3627501  -11.1100502  5.0931702
AU  9.2810001  -6.96381  -5.1108303
AU  11.3209705  -4.8365908  -5.0923901
AU  9.2937098  -4.8288202  -7.17699
AU  11.3166094  -6.9425602  -7.1840901
AU  9.2950897  -6.98981  -1.04502
AU  11.30865  -4.8505306  -1.02983
AU  9.2824888  -4.8573904  -3.06552
AU  11.3335495  -6.9545808  -3.0596302
AU  9.3034096  -6.98844  3.0331299
AU  11.29111  -4.8392701  3.0285499
AU  9.2900095  -4.8624902  0.99561
AU  11.318821  -6.9704504  0.9934
AU  9.3192806  -6.9502101  7.1877499
AU  11.3331003  -4.8367305  7.1538501
AU  9.2942696  -4.8541908  5.0937099
AU  11.3229704  -6.9584603  5.0689297
AU  -6.82195  -11.1683311  -5.1447601
AU  -4.73667  -9.0899401  -5.1264501
AU  -6.7861099  -9.1047497  -7.2301402
AU  -4.6932197  -11.2159805  -7.1311502
AU  -6.8176603  -11.1929007  -1.0492699
AU  -4.7757101  -9.0865593  -1.04396
AU  -6.8053703  -9.0752096  -3.1028399
AU  -4.7932596  -11.1838503  -3.0999401
AU  -6.8145709  -11.1803503  3.0835199
AU  -4.7714601  -9.1005898  3.07002
AU  -6.8000202  -9.0812902  1.01097
AU  -4.7818899  -11.1885605  1.0140499
AU  -6.8300405  -11.1544495  7.2094498
AU  -4.8100405  -9.0676603  7.23034
AU  -6.8034501  -9.0625496  5.1216998
AU  -4.7603898  -11.1865797  5.1143003
AU  -6.79071  -7.03123  -5.1550002
AU  -4.7677398  -4.9271603  -5.1542001
AU  -6.7615299  -4.9586  -7.27847
AU  -4.71737  -7.08287  -7.2472796
AU  -6.7830396  -6.9973202  -1.05032
AU  -4.7562599  -4.8944907  -1.0537499
AU  -6.7819395  -4.9092398  -3.1092999
AU  -4.7586398  -7.0247102  -3.0871198
AU  -6.7890697  -6.9943204  3.0678499
AU  -4.8022099  -4.8914304  3.10691
AU  -6.7565203  -4.8746505  1.0117201
AU  -4.7776098  -7.0193  1.0126799
AU  -6.8294802  -6.9833899  7.2418098
AU  -4.7971301  -4.8764305  7.2586098
AU  -6.8150506  -4.8774004  5.1555505
AU  -4.7958703  -6.9944506  5.1533699
AU  13.4091291  -11.0762596  -5.1306701
AU  15.4962492  -8.9722795  -5.0637898
AU  13.4101696  -8.9386396  -7.17696
AU  15.5175295  -10.9735994  -7.1759801
AU  13.4296894  -11.1229706  -1.04118
AU  15.4938698  -9.01437  -1.02319
AU  13.3983107  -9.0061197  -3.0526102
AU  15.4947596  -11.1012211  -3.08494
AU  13.38729  -11.1196299  3.0220702
AU  15.4645491  -8.9941998  3.00318
AU  13.3798695  -9.0212212  0.98614
AU  15.4804792  -11.11061  1.02064
AU  13.430109  -11.0527496  7.1654301
AU  15.490489  -8.9368887  7.1104302
AU  13.3778801  -8.9942694  5.0554304
AU  15.4724989  -11.0836201  5.0490699
AU  13.3793898  -6.9232898  -5.0771999
AU  15.4634895  -4.8071103  -5.0361204
AU  13.3737202  -4.86169  -7.1427498
AU  15.4976797  -6.89993  -7.1232796
AU  13.3684607  -6.9349604  -1.02158
AU  15.4614096  -4.8141809  -1.02002
AU  13.3621206  -4.8278704  -3.0362899
AU  15.4777489  -6.9267201  -3.0281198
AU  13.3579702  -6.9419098  3.0060601
AU  15.4423294  -4.8084002  3.0094802
AU  13.3487701  -4.8231301  0.99875
AU  15.4638605  -6.9156504  0.9865201
AU  13.37006  -6.9264002  7.1326098
AU  15.4343596  -4.8543606  7.0792499
AU  13.3378401  -4.8425999  5.0337801
AU  15.4554996  -6.9170504  5.0124803
AU  -2.64625  -11.2047396  -5.0123801
AU  -0.62611  -9.0741997  -5.0795603
AU  -2.6147599  -9.1732206  -7.1556401
AU  -0.4204  -11.3359604  -6.8923903
AU  -2.7290301  -11.1980906  -1.0697999
AU  -0.69009  -9.0485697  -1.02309
AU  -2.71069  -9.0848494  -3.0643599
AU  -0.49648  -11.1736298  -3.00876
AU  -2.6963098  -11.20333  3.0308499
AU  -0.75976  -9.0740595  3.0713699
AU  -2.7383199  -9.0984201  0.99021
AU  -0.61301  -11.2053299  0.89562
AU  -2.78474  -11.1570301  7.2587099
AU  -0.7576  -9.03895  7.2469997
AU  -2.7725201  -9.0772696  5.1454
AU  -0.7444201  -11.1703205  5.17523
AU  -2.7037201  -7.0198703  -5.1533899
AU  -0.75929  -4.7802196  -5.1265702
AU  -2.76807  -4.8950105  -7.2453499
AU  -0.7205999  -6.9639196  -7.2339797
AU  -2.7709999  -7.0078201  -1.0277599
AU  -0.8558601  -4.8918905  -0.97632
AU  -2.7750101  -4.9074001  -3.1147499
AU  -0.78078  -6.9540706  -3.0691299
AU  -2.79669  -7.0085702  3.0831299
AU  -0.80611  -4.8822498  3.0682299
AU  -2.8210998  -4.8793602  1.02661
AU  -0.7809299  -6.9864001  1.0409
AU  -2.79124  -6.9876099  7.23913
AU  -0.74679  -4.8846402  7.2305002
AU  -2.77198  -4.8872499  5.1486797
AU  -0.76424  -6.9872098  5.1371903