200
REMARK graphite
C      4.141   3.305  -3.641
C      3.254   3.762  -2.621
C      1.962   0.786  -4.295
C      2.087   0.286  -2.965
C     -0.217  -1.734  -4.949
C     -1.104  -1.278  -3.929
C     -2.397  -4.254  -5.603
C     -2.272  -4.753  -4.273
C      2.265   4.743  -2.925
C      1.378   5.199  -1.906
C      0.085   2.223  -3.579
C      0.210   1.724  -2.249
C     -2.094  -0.297  -4.233
C     -2.981   0.160  -3.214
C     -4.273  -2.817  -4.887
C     -4.148  -3.316  -3.557
C      0.388   6.180  -2.210
C     -0.499   6.636  -1.190
C     -1.792   3.660  -2.864
C     -1.666   3.161  -1.533
C     -3.971   1.141  -3.518
C     -4.858   1.597  -2.498
C     -6.150  -1.379  -4.172
C     -6.025  -1.878  -2.841
C     -1.489   7.617  -1.494
C     -2.376   8.074  -0.474
C     -3.668   5.098  -2.148
C     -3.543   4.598  -0.818
C     -5.848   2.578  -2.802
C     -6.734   3.034  -1.782
C     -8.027   0.058  -3.456
C     -7.902  -0.441  -2.126
C     -3.366   9.055  -0.778
C     -4.252   9.511   0.242
C     -5.545   6.535  -1.432
C     -5.420   6.036  -0.102
C     -7.724   4.015  -2.086
C     -8.611   4.472  -1.066
C     -9.904   1.496  -2.740
C     -9.779   0.996  -1.410
C      5.300   1.876  -1.994
C      4.413   2.332  -0.974
C      3.121  -0.644  -2.648
C      3.246  -1.143  -1.317
C      0.941  -3.164  -3.302
C      0.055  -2.707  -2.282
C     -1.238  -5.684  -3.956
C     -1.113  -6.183  -2.625
C      3.423   3.313  -1.278
C      2.536   3.769  -0.258
C      1.244   0.793  -1.932
C      1.369   0.294  -0.601
C     -0.935  -1.727  -2.586
C     -1.822  -1.270  -1.566
C     -3.115  -4.246  -3.240
C     -2.990  -4.746  -1.910
C      1.546   4.750  -0.562
C      0.660   5.207   0.458
C     -0.633   2.231  -1.216
C     -0.508   1.731   0.114
C     -2.812  -0.289  -1.870
C     -3.699   0.167  -0.850
C     -4.991  -2.809  -2.524
C     -4.866  -3.308  -1.194
C     -0.330   6.188   0.154
C     -1.217   6.644   1.173
C     -2.510   3.668  -0.500
C     -2.385   3.169   0.830
C     -4.689   1.148  -1.154
C     -5.576   1.605  -0.135
C     -6.868  -1.371  -1.808
C     -6.743  -1.871  -0.478
C     -2.207   7.625   0.869
C     -3.094   8.082   1.889
C     -4.386   5.105   0.215
C     -4.261   4.606   1.546
C     -6.566   2.586  -0.439
C     -7.452   3.042   0.581
C     -8.745   0.066  -1.093
C     -8.620  -0.433   0.238
C      6.459   0.446  -0.346
C      5.572   0.902   0.674
C      4.279  -2.074  -1.000
C      4.404  -2.573   0.330
C      2.100  -4.594  -1.654
C      1.213  -4.137  -0.634
C     -0.079  -7.113  -2.308
C      0.046  -7.613  -0.978
C      4.582   1.883   0.370
C      3.695   2.340   1.389
C      2.403  -0.637  -0.284
C      2.528  -1.136   1.046
C      0.223  -3.156  -0.938
C     -0.664  -2.700   0.081
C     -1.956  -5.676  -1.592
C     -1.831  -6.175  -0.262
C      2.705   3.321   1.085
C      1.818   3.777   2.105
C      0.526   0.801   0.431
C      0.651   0.302   1.762
C     -1.653  -1.719  -0.223
C     -2.540  -1.262   0.797
C     -3.833  -4.239  -0.877
C     -3.708  -4.738   0.454
C      0.828   4.758   1.801
C     -0.058   5.214   2.821
C     -1.351   2.238   1.147
C     -1.226   1.739   2.477
C     -3.530  -0.281   0.493
C     -4.417   0.175   1.513
C     -5.710  -2.801  -0.161
C     -5.584  -3.300   1.169
C     -1.048   6.195   2.517
C     -1.935   6.652   3.537
C     -3.228   3.676   1.863
C     -3.103   3.176   3.193
C     -5.407   1.156   1.209
C     -6.294   1.612   2.229
C     -7.586  -1.364   0.555
C     -7.461  -1.863   1.885
C      7.617  -0.984   1.301
C      6.730  -0.528   2.321
C      5.438  -3.504   0.647
C      5.563  -4.003   1.978
C      3.259  -6.023  -0.007
C      2.372  -5.567   1.013
C      1.079  -8.543  -0.661
C      1.204  -9.042   0.670
C      5.740   0.453   2.017
C      4.854   0.910   3.037
C      3.561  -2.066   1.363
C      3.686  -2.566   2.694
C      1.382  -4.586   0.709
C      0.495  -4.130   1.729
C     -0.797  -7.106   0.055
C     -0.672  -7.605   1.385
C      3.864   1.891   2.733
C      2.977   2.347   3.753
C      1.684  -0.629   2.079
C      1.809  -1.128   3.409
C     -0.495  -3.149   1.425
C     -1.382  -2.692   2.445
C     -2.674  -5.668   0.771
C     -2.549  -6.168   2.101
C      1.987   3.328   3.449
C      1.100   3.785   4.468
C     -0.192   0.809   2.795
C     -0.067   0.309   4.125
C     -2.372  -1.711   2.141
C     -3.258  -1.255   3.160
C     -4.551  -4.231   1.487
C     -4.426  -4.730   2.817
C      0.110   4.766   4.164
C     -0.777   5.222   5.184
C     -2.069   2.246   3.510
C     -1.944   1.747   4.841
C     -4.248  -0.274   2.856
C     -5.135   0.183   3.876
C     -6.428  -2.794   2.202
C     -6.303  -3.293   3.533
C      8.776  -2.414   2.949
C      7.889  -1.957   3.969
C      6.597  -4.933   2.295
C      6.722  -5.433   3.625
C      4.417  -7.453   1.641
C      3.531  -6.997   2.661
C      2.238  -9.973   0.987
C      2.363 -10.472   2.317
C      6.899  -0.976   3.665
C      6.012  -0.520   4.684
C      4.720  -3.496   3.011
C      4.845  -3.995   4.341
C      2.541  -6.016   2.357
C      1.654  -5.559   3.376
C      0.361  -8.535   1.703
C      0.486  -9.035   3.033
C      5.022   0.461   4.380
C      4.136   0.918   5.400
C      2.843  -2.059   3.726
C      2.968  -2.558   5.057
C      0.664  -4.578   3.072
C     -0.223  -4.122   4.092
C     -1.515  -7.098   2.418
C     -1.390  -7.597   3.749
C      3.146   1.898   5.096
C      2.259   2.355   6.116
C      0.966  -0.621   4.442
C      1.091  -1.120   5.772
C     -1.213  -3.141   3.788
C     -2.100  -2.685   4.808
C     -3.392  -5.661   3.134
C     -3.267  -6.160   4.464
C      1.269   3.336   5.812
C      0.382   3.792   6.832
C     -0.910   0.816   5.158
C     -0.785   0.317   6.488
C     -3.090  -1.704   4.504
C     -3.976  -1.247   5.524
C     -5.269  -4.223   3.850
C     -5.144  -4.723   5.180