128
REMARK: Iron
FE -5.74 -5.74 -5.74
FE -4.305 -4.305 -4.305
FE -5.74 -5.74 -2.87
FE -4.305 -4.305 -1.435
FE -5.74 -5.74 0.0
FE -4.305 -4.305 1.435
FE -5.74 -5.74 2.87
FE -4.305 -4.305 4.305
FE -5.74 -2.87 -5.74
FE -4.305 -1.435 -4.305
FE -5.74 -2.87 -2.87
FE -4.305 -1.435 -1.435
FE -5.74 -2.87 0.0
FE -4.305 -1.435 1.435
FE -5.74 -2.87 2.87
FE -4.305 -1.435 4.305
FE -5.74 0.0 -5.74
FE -4.305 1.435 -4.305
FE -5.74 0.0 -2.87
FE -4.305 1.435 -1.435
FE -5.74 0.0 0.0
FE -4.305 1.435 1.435
FE -5.74 0.0 2.87
FE -4.305 1.435 4.305
FE -5.74 2.87 -5.74
FE -4.305 4.305 -4.305
FE -5.74 2.87 -2.87
FE -4.305 4.305 -1.435
FE -5.74 2.87 0.0
FE -4.305 4.305 1.435
FE -5.74 2.87 2.87
FE -4.305 4.305 4.305
FE -2.87 -5.74 -5.74
FE -1.435 -4.305 -4.305
FE -2.87 -5.74 -2.87
FE -1.435 -4.305 -1.435
FE -2.87 -5.74 0.0
FE -1.435 -4.305 1.435
FE -2.87 -5.74 2.87
FE -1.435 -4.305 4.305
FE -2.87 -2.87 -5.74
FE -1.435 -1.435 -4.305
FE -2.87 -2.87 -2.87
FE -1.435 -1.435 -1.435
FE -2.87 -2.87 0.0
FE -1.435 -1.435 1.435
FE -2.87 -2.87 2.87
FE -1.435 -1.435 4.305
FE -2.87 0.0 -5.74
FE -1.435 1.435 -4.305
FE -2.87 0.0 -2.87
FE -1.435 1.435 -1.435
FE -2.87 0.0 0.0
FE -1.435 1.435 1.435
FE -2.87 0.0 2.87
FE -1.435 1.435 4.305
FE -2.87 2.87 -5.74
FE -1.435 4.305 -4.305
FE -2.87 2.87 -2.87
FE -1.435 4.305 -1.435
FE -2.87 2.87 0.0
FE -1.435 4.305 1.435
FE -2.87 2.87 2.87
FE -1.435 4.305 4.305
FE 0.0 -5.74 -5.74
FE 1.435 -4.305 -4.305
FE 0.0 -5.74 -2.87
FE 1.435 -4.305 -1.435
FE 0.0 -5.74 0.0
FE 1.435 -4.305 1.435
FE 0.0 -5.74 2.87
FE 1.435 -4.305 4.305
FE 0.0 -2.87 -5.74
FE 1.435 -1.435 -4.305
FE 0.0 -2.87 -2.87
FE 1.435 -1.435 -1.435
FE 0.0 -2.87 0.0
FE 1.435 -1.435 1.435
FE 0.0 -2.87 2.87
FE 1.435 -1.435 4.305
FE 0.0 0.0 -5.74
FE 1.435 1.435 -4.305
FE 0.0 0.0 -2.87
FE 1.435 1.435 -1.435
FE 0.0 0.0 0.0
FE 1.435 1.435 1.435
FE 0.0 0.0 2.87
FE 1.435 1.435 4.305
FE 0.0 2.87 -5.74
FE 1.435 4.305 -4.305
FE 0.0 2.87 -2.87
FE 1.435 4.305 -1.435
FE 0.0 2.87 0.0
FE 1.435 4.305 1.435
FE 0.0 2.87 2.87
FE 1.435 4.305 4.305
FE 2.87 -5.74 -5.74
FE 4.305 -4.305 -4.305
FE 2.87 -5.74 -2.87
FE 4.305 -4.305 -1.435
FE 2.87 -5.74 0.0
FE 4.305 -4.305 1.435
FE 2.87 -5.74 2.87
FE 4.305 -4.305 4.305
FE 2.87 -2.87 -5.74
FE 4.305 -1.435 -4.305
FE 2.87 -2.87 -2.87
FE 4.305 -1.435 -1.435
FE 2.87 -2.87 0.0
FE 4.305 -1.435 1.435
FE 2.87 -2.87 2.87
FE 4.305 -1.435 4.305
FE 2.87 0.0 -5.74
FE 4.305 1.435 -4.305
FE 2.87 0.0 -2.87
FE 4.305 1.435 -1.435
FE 2.87 0.0 0.0
FE 4.305 1.435 1.435
FE 2.87 0.0 2.87
FE 4.305 1.435 4.305
FE 2.87 2.87 -5.74
FE 4.305 4.305 -4.305
FE 2.87 2.87 -2.87
FE 4.305 4.305 -1.435
FE 2.87 2.87 0.0
FE 4.305 4.305 1.435
FE 2.87 2.87 2.87
FE 4.305 4.305 4.305