256
REMARK: Silver
AG -8.18 -8.18 -8.18
AG -6.135 -6.135 -8.18
AG -8.18 -6.135 -10.225
AG -6.135 -8.18 -10.225
AG -8.18 -8.18 -4.09
AG -6.135 -6.135 -4.09
AG -8.18 -6.135 -6.135
AG -6.135 -8.18 -6.135
AG -8.18 -8.18 0.0
AG -6.135 -6.135 0.0
AG -8.18 -6.135 -2.045
AG -6.135 -8.18 -2.045
AG -8.18 -8.18 4.09
AG -6.135 -6.135 4.09
AG -8.18 -6.135 2.045
AG -6.135 -8.18 2.045
AG -8.18 -4.09 -8.18
AG -6.135 -2.045 -8.18
AG -8.18 -2.045 -10.225
AG -6.135 -4.09 -10.225
AG -8.18 -4.09 -4.09
AG -6.135 -2.045 -4.09
AG -8.18 -2.045 -6.135
AG -6.135 -4.09 -6.135
AG -8.18 -4.09 0.0
AG -6.135 -2.045 0.0
AG -8.18 -2.045 -2.045
AG -6.135 -4.09 -2.045
AG -8.18 -4.09 4.09
AG -6.135 -2.045 4.09
AG -8.18 -2.045 2.045
AG -6.135 -4.09 2.045
AG -8.18 0.0 -8.18
AG -6.135 2.045 -8.18
AG -8.18 2.045 -10.225
AG -6.135 0.0 -10.225
AG -8.18 0.0 -4.09
AG -6.135 2.045 -4.09
AG -8.18 2.045 -6.135
AG -6.135 0.0 -6.135
AG -8.18 0.0 0.0
AG -6.135 2.045 0.0
AG -8.18 2.045 -2.045
AG -6.135 0.0 -2.045
AG -8.18 0.0 4.09
AG -6.135 2.045 4.09
AG -8.18 2.045 2.045
AG -6.135 0.0 2.045
AG -8.18 4.09 -8.18
AG -6.135 6.135 -8.18
AG -8.18 6.135 -10.225
AG -6.135 4.09 -10.225
AG -8.18 4.09 -4.09
AG -6.135 6.135 -4.09
AG -8.18 6.135 -6.135
AG -6.135 4.09 -6.135
AG -8.18 4.09 0.0
AG -6.135 6.135 0.0
AG -8.18 6.135 -2.045
AG -6.135 4.09 -2.045
AG -8.18 4.09 4.09
AG -6.135 6.135 4.09
AG -8.18 6.135 2.045
AG -6.135 4.09 2.045
AG -4.09 -8.18 -8.18
AG -2.045 -6.135 -8.18
AG -4.09 -6.135 -10.225
AG -2.045 -8.18 -10.225
AG -4.09 -8.18 -4.09
AG -2.045 -6.135 -4.09
AG -4.09 -6.135 -6.135
AG -2.045 -8.18 -6.135
AG -4.09 -8.18 0.0
AG -2.045 -6.135 0.0
AG -4.09 -6.135 -2.045
AG -2.045 -8.18 -2.045
AG -4.09 -8.18 4.09
AG -2.045 -6.135 4.09
AG -4.09 -6.135 2.045
AG -2.045 -8.18 2.045
AG -4.09 -4.09 -8.18
AG -2.045 -2.045 -8.18
AG -4.09 -2.045 -10.225
AG -2.045 -4.09 -10.225
AG -4.09 -4.09 -4.09
AG -2.045 -2.045 -4.09
AG -4.09 -2.045 -6.135
AG -2.045 -4.09 -6.135
AG -4.09 -4.09 0.0
AG -2.045 -2.045 0.0
AG -4.09 -2.045 -2.045
AG -2.045 -4.09 -2.045
AG -4.09 -4.09 4.09
AG -2.045 -2.045 4.09
AG -4.09 -2.045 2.045
AG -2.045 -4.09 2.045
AG -4.09 0.0 -8.18
AG -2.045 2.045 -8.18
AG -4.09 2.045 -10.225
AG -2.045 0.0 -10.225
AG -4.09 0.0 -4.09
AG -2.045 2.045 -4.09
AG -4.09 2.045 -6.135
AG -2.045 0.0 -6.135
AG -4.09 0.0 0.0
AG -2.045 2.045 0.0
AG -4.09 2.045 -2.045
AG -2.045 0.0 -2.045
AG -4.09 0.0 4.09
AG -2.045 2.045 4.09
AG -4.09 2.045 2.045
AG -2.045 0.0 2.045
AG -4.09 4.09 -8.18
AG -2.045 6.135 -8.18
AG -4.09 6.135 -10.225
AG -2.045 4.09 -10.225
AG -4.09 4.09 -4.09
AG -2.045 6.135 -4.09
AG -4.09 6.135 -6.135
AG -2.045 4.09 -6.135
AG -4.09 4.09 0.0
AG -2.045 6.135 0.0
AG -4.09 6.135 -2.045
AG -2.045 4.09 -2.045
AG -4.09 4.09 4.09
AG -2.045 6.135 4.09
AG -4.09 6.135 2.045
AG -2.045 4.09 2.045
AG 0.0 -8.18 -8.18
AG 2.045 -6.135 -8.18
AG 0.0 -6.135 -10.225
AG 2.045 -8.18 -10.225
AG 0.0 -8.18 -4.09
AG 2.045 -6.135 -4.09
AG 0.0 -6.135 -6.135
AG 2.045 -8.18 -6.135
AG 0.0 -8.18 0.0
AG 2.045 -6.135 0.0
AG 0.0 -6.135 -2.045
AG 2.045 -8.18 -2.045
AG 0.0 -8.18 4.09
AG 2.045 -6.135 4.09
AG 0.0 -6.135 2.045
AG 2.045 -8.18 2.045
AG 0.0 -4.09 -8.18
AG 2.045 -2.045 -8.18
AG 0.0 -2.045 -10.225
AG 2.045 -4.09 -10.225
AG 0.0 -4.09 -4.09
AG 2.045 -2.045 -4.09
AG 0.0 -2.045 -6.135
AG 2.045 -4.09 -6.135
AG 0.0 -4.09 0.0
AG 2.045 -2.045 0.0
AG 0.0 -2.045 -2.045
AG 2.045 -4.09 -2.045
AG 0.0 -4.09 4.09
AG 2.045 -2.045 4.09
AG 0.0 -2.045 2.045
AG 2.045 -4.09 2.045
AG 0.0 0.0 -8.18
AG 2.045 2.045 -8.18
AG 0.0 2.045 -10.225
AG 2.045 0.0 -10.225
AG 0.0 0.0 -4.09
AG 2.045 2.045 -4.09
AG 0.0 2.045 -6.135
AG 2.045 0.0 -6.135
AG 0.0 0.0 0.0
AG 2.045 2.045 0.0
AG 0.0 2.045 -2.045
AG 2.045 0.0 -2.045
AG 0.0 0.0 4.09
AG 2.045 2.045 4.09
AG 0.0 2.045 2.045
AG 2.045 0.0 2.045
AG 0.0 4.09 -8.18
AG 2.045 6.135 -8.18
AG 0.0 6.135 -10.225
AG 2.045 4.09 -10.225
AG 0.0 4.09 -4.09
AG 2.045 6.135 -4.09
AG 0.0 6.135 -6.135
AG 2.045 4.09 -6.135
AG 0.0 4.09 0.0
AG 2.045 6.135 0.0
AG 0.0 6.135 -2.045
AG 2.045 4.09 -2.045
AG 0.0 4.09 4.09
AG 2.045 6.135 4.09
AG 0.0 6.135 2.045
AG 2.045 4.09 2.045
AG 4.09 -8.18 -8.18
AG 6.135 -6.135 -8.18
AG 4.09 -6.135 -10.225
AG 6.135 -8.18 -10.225
AG 4.09 -8.18 -4.09
AG 6.135 -6.135 -4.09
AG 4.09 -6.135 -6.135
AG 6.135 -8.18 -6.135
AG 4.09 -8.18 0.0
AG 6.135 -6.135 0.0
AG 4.09 -6.135 -2.045
AG 6.135 -8.18 -2.045
AG 4.09 -8.18 4.09
AG 6.135 -6.135 4.09
AG 4.09 -6.135 2.045
AG 6.135 -8.18 2.045
AG 4.09 -4.09 -8.18
AG 6.135 -2.045 -8.18
AG 4.09 -2.045 -10.225
AG 6.135 -4.09 -10.225
AG 4.09 -4.09 -4.09
AG 6.135 -2.045 -4.09
AG 4.09 -2.045 -6.135
AG 6.135 -4.09 -6.135
AG 4.09 -4.09 0.0
AG 6.135 -2.045 0.0
AG 4.09 -2.045 -2.045
AG 6.135 -4.09 -2.045
AG 4.09 -4.09 4.09
AG 6.135 -2.045 4.09
AG 4.09 -2.045 2.045
AG 6.135 -4.09 2.045
AG 4.09 0.0 -8.18
AG 6.135 2.045 -8.18
AG 4.09 2.045 -10.225
AG 6.135 0.0 -10.225
AG 4.09 0.0 -4.09
AG 6.135 2.045 -4.09
AG 4.09 2.045 -6.135
AG 6.135 0.0 -6.135
AG 4.09 0.0 0.0
AG 6.135 2.045 0.0
AG 4.09 2.045 -2.045
AG 6.135 0.0 -2.045
AG 4.09 0.0 4.09
AG 6.135 2.045 4.09
AG 4.09 2.045 2.045
AG 6.135 0.0 2.045
AG 4.09 4.09 -8.18
AG 6.135 6.135 -8.18
AG 4.09 6.135 -10.225
AG 6.135 4.09 -10.225
AG 4.09 4.09 -4.09
AG 6.135 6.135 -4.09
AG 4.09 6.135 -6.135
AG 6.135 4.09 -6.135
AG 4.09 4.09 0.0
AG 6.135 6.135 0.0
AG 4.09 6.135 -2.045
AG 6.135 4.09 -2.045
AG 4.09 4.09 4.09
AG 6.135 6.135 4.09
AG 4.09 6.135 2.045
AG 6.135 4.09 2.045